2024_89_CemigReconfigurationCases/1_AlimsCemig/ESR15/ESR15Ramais.dss
new line.RBT_10017344 bus1=4086860.1.2.0,bus2=4010017344.1.2.0,Phases=2,Linecode=CABBTG05_4_2_2,Length=0.017000000,Units=km
new line.RBT_10017379 bus1=1136948.1.2.0,bus2=4010017379.1.2.0,Phases=2,Linecode=CABBTG05_4_2_2,Length=0.017000000,Units=km
new line.RBT_10019745 bus1=1151270.1.2.0,bus2=4010019745.1.2.0,Phases=2,Linecode=CABBTG05_4_2_2,Length=0.017000000,Units=km
new line.RBT_10020690 bus1=3544255.1.0,bus2=4010020690.1.0,Phases=1,Linecode=CABBTG02_4_1_1,Length=0.017000000,Units=km
new line.RBT_10024659 bus1=114146944.2.0,bus2=4010024659.2.0,Phases=1,Linecode=CABBTG02_4_1_1,Length=0.017000000,Units=km
new line.RBT_10025142 bus1=127515166.1.2.3.0,bus2=4010025142.1.2.3.0,Phases=3,Linecode=CABBTG09_4_3_3,Length=0.017000000,Units=km
new line.RBT_10092688 bus1=4237479.1.0,bus2=4010092688.1.0,Phases=1,Linecode=CABBTG02_4_1_1,Length=0.006000000,Units=km
new line.RBT_10125363 bus1=1152642.1.0,bus2=4010125363.1.0,Phases=1,Linecode=CABBTG02_4_1_1,Length=0.007000000,Units=km
new line.RBT_10162367 bus1=1135534.2.0,bus2=4010162367.2.0,Phases=1,Linecode=CABBTG01_4_1_1,Length=0.017000000,Units=km
new line.RBT_10163496 bus1=4302418.1.2.0,bus2=4010163496.1.2.0,Phases=2,Linecode=CABBTG04_4_2_2,Length=0.017000000,Units=km
new line.RBT_10163759 bus1=4657311.2.0,bus2=4010163759.2.0,Phases=1,Linecode=CABBTG01_4_1_1,Length=0.017000000,Units=km
new line.RBT_10163760 bus1=4657332.2.0,bus2=4010163760.2.0,Phases=1,Linecode=CABBTG01_4_1_1,Length=0.017000000,Units=km
new line.RBT_10163763 bus1=4657710.2.0,bus2=4010163763.2.0,Phases=1,Linecode=CABBTG01_4_1_1,Length=0.017000000,Units=km
new line.RBT_10163764 bus1=4657269.2.0,bus2=4010163764.2.0,Phases=1,Linecode=CABBTG01_4_1_1,Length=0.017000000,Units=km
new line.RBT_10163767 bus1=4657262.2.0,bus2=4010163767.2.0,Phases=1,Linecode=CABBTG01_4_1_1,Length=0.017000000,Units=km
new line.RBT_10163768 bus1=4657276.2.0,bus2=4010163768.2.0,Phases=1,Linecode=CABBTG01_4_1_1,Length=0.017000000,Units=km
new line.RBT_10163771 bus1=4657360.2.0,bus2=4010163771.2.0,Phases=1,Linecode=CABBTG01_4_1_1,Length=0.017000000,Units=km
new line.RBT_10163772 bus1=4657360.2.0,bus2=4010163772.2.0,Phases=1,Linecode=CABBTG01_4_1_1,Length=0.017000000,Units=km
new line.RBT_10163773 bus1=4657682.2.0,bus2=4010163773.2.0,Phases=1,Linecode=CABBTG01_4_1_1,Length=0.017000000,Units=km
new line.RBT_10163774 bus1=4657675.2.0,bus2=4010163774.2.0,Phases=1,Linecode=CABBTG01_4_1_1,Length=0.017000000,Units=km
new line.RBT_10163776 bus1=4657689.2.0,bus2=4010163776.2.0,Phases=1,Linecode=CABBTG01_4_1_1,Length=0.017000000,Units=km
new line.RBT_10163779 bus1=4657339.2.0,bus2=4010163779.2.0,Phases=1,Linecode=CABBTG01_4_1_1,Length=0.017000000,Units=km
new line.RBT_10163780 bus1=4657325.2.0,bus2=4010163780.2.0,Phases=1,Linecode=CABBTG01_4_1_1,Length=0.017000000,Units=km
new line.RBT_10163781 bus1=4657325.2.0,bus2=4010163781.2.0,Phases=1,Linecode=CABBTG01_4_1_1,Length=0.017000000,Units=km
new line.RBT_10163818 bus1=4657360.2.0,bus2=4010163818.2.0,Phases=1,Linecode=CABBTG01_4_1_1,Length=0.017000000,Units=km
new line.RBT_10163837 bus1=1140721.2.0,bus2=4010163837.2.0,Phases=1,Linecode=CABBTG01_4_1_1,Length=0.017000000,Units=km
new line.RBT_10163839 bus1=4657710.2.0,bus2=4010163839.2.0,Phases=1,Linecode=CABBTG01_4_1_1,Length=0.017000000,Units=km
new line.RBT_10164352 bus1=4657304.1.0,bus2=4010164352.1.0,Phases=1,Linecode=CABBTG01_4_1_1,Length=0.017000000,Units=km
new line.RBT_10164356 bus1=4657675.1.0,bus2=4010164356.1.0,Phases=1,Linecode=CABBTG01_4_1_1,Length=0.017000000,Units=km
new line.RBT_10164365 bus1=4657710.1.0,bus2=4010164365.1.0,Phases=1,Linecode=CABBTG01_4_1_1,Length=0.017000000,Units=km
new line.RBT_10164701 bus1=4254265.2.0,bus2=4010164701.2.0,Phases=1,Linecode=CABBTG01_4_1_1,Length=0.017000000,Units=km
new line.RBT_10196069 bus1=149148225.1.2.3.0,bus2=4010196069.1.2.3.0,Phases=3,Linecode=CABBTG10_4_3_3,Length=0.017000000,Units=km
new line.RBT_10196102 bus1=149147955.1.2.3.0,bus2=4010196102.1.2.3.0,Phases=3,Linecode=CABBTG10_4_3_3,Length=0.017000000,Units=km
new line.RBT_10196103 bus1=149147955.1.2.3.0,bus2=4010196103.1.2.3.0,Phases=3,Linecode=CABBTG10_4_3_3,Length=0.017000000,Units=km
new line.RBT_10196113 bus1=149148427.1.2.3.0,bus2=4010196113.1.2.3.0,Phases=3,Linecode=CABBTG12_4_3_3,Length=0.017000000,Units=km
new line.RBT_10196150 bus1=149148427.1.2.3.0,bus2=4010196150.1.2.3.0,Phases=3,Linecode=CABBTG12_4_3_3,Length=0.017000000,Units=km
new line.RBT_10196153 bus1=149148422.1.2.3.0,bus2=4010196153.1.2.3.0,Phases=3,Linecode=CABBTG12_4_3_3,Length=0.017000000,Units=km
new line.RBT_10196155 bus1=149148422.1.2.3.0,bus2=4010196155.1.2.3.0,Phases=3,Linecode=CABBTG12_4_3_3,Length=0.017000000,Units=km
new line.RBT_10196215 bus1=149148384.1.2.3.0,bus2=4010196215.1.2.3.0,Phases=3,Linecode=CABBTG12_4_3_3,Length=0.017000000,Units=km
new line.RBT_10196219 bus1=149148341.1.2.3.0,bus2=4010196219.1.2.3.0,Phases=3,Linecode=CABBTG12_4_3_3,Length=0.017000000,Units=km
new line.RBT_10196224 bus1=149148631.1.2.3.0,bus2=4010196224.1.2.3.0,Phases=3,Linecode=CABBTG12_4_3_3,Length=0.017000000,Units=km
new line.RBT_10196225 bus1=149148631.1.2.3.0,bus2=4010196225.1.2.3.0,Phases=3,Linecode=CABBTG12_4_3_3,Length=0.017000000,Units=km
new line.RBT_10196226 bus1=149148384.1.2.3.0,bus2=4010196226.1.2.3.0,Phases=3,Linecode=CABBTG12_4_3_3,Length=0.017000000,Units=km
new line.RBT_10196230 bus1=149148631.1.2.3.0,bus2=4010196230.1.2.3.0,Phases=3,Linecode=CABBTG12_4_3_3,Length=0.017000000,Units=km
new line.RBT_10196231 bus1=149148384.1.2.3.0,bus2=4010196231.1.2.3.0,Phases=3,Linecode=CABBTG12_4_3_3,Length=0.017000000,Units=km
new line.RBT_10196926 bus1=149147967.1.2.3.0,bus2=4010196926.1.2.3.0,Phases=3,Linecode=CABBTG12_4_3_3,Length=0.017000000,Units=km
new line.RBT_10196935 bus1=149148741.1.2.3.0,bus2=4010196935.1.2.3.0,Phases=3,Linecode=CABBTG12_4_3_3,Length=0.017000000,Units=km
new line.RBT_10196937 bus1=149148669.1.2.3.0,bus2=4010196937.1.2.3.0,Phases=3,Linecode=CABBTG12_4_3_3,Length=0.017000000,Units=km
new line.RBT_10196939 bus1=149148669.1.2.3.0,bus2=4010196939.1.2.3.0,Phases=3,Linecode=CABBTG12_4_3_3,Length=0.017000000,Units=km
new line.RBT_10196941 bus1=149148741.1.2.3.0,bus2=4010196941.1.2.3.0,Phases=3,Linecode=CABBTG12_4_3_3,Length=0.017000000,Units=km
new line.RBT_10196942 bus1=149148741.1.2.3.0,bus2=4010196942.1.2.3.0,Phases=3,Linecode=CABBTG12_4_3_3,Length=0.017000000,Units=km
new line.RBT_10196943 bus1=149148669.1.2.3.0,bus2=4010196943.1.2.3.0,Phases=3,Linecode=CABBTG12_4_3_3,Length=0.017000000,Units=km
new line.RBT_10196945 bus1=149148650.1.2.3.0,bus2=4010196945.1.2.3.0,Phases=3,Linecode=CABBTG12_4_3_3,Length=0.017000000,Units=km
new line.RBT_10196949 bus1=149148650.1.2.3.0,bus2=4010196949.1.2.3.0,Phases=3,Linecode=CABBTG12_4_3_3,Length=0.017000000,Units=km
new line.RBT_10196951 bus1=149148650.1.2.3.0,bus2=4010196951.1.2.3.0,Phases=3,Linecode=CABBTG12_4_3_3,Length=0.017000000,Units=km
new line.RBT_10196953 bus1=149148669.1.2.3.0,bus2=4010196953.1.2.3.0,Phases=3,Linecode=CABBTG12_4_3_3,Length=0.017000000,Units=km
new line.RBT_10196954 bus1=149148669.1.2.3.0,bus2=4010196954.1.2.3.0,Phases=3,Linecode=CABBTG12_4_3_3,Length=0.017000000,Units=km
new line.RBT_10196956 bus1=149148631.1.2.3.0,bus2=4010196956.1.2.3.0,Phases=3,Linecode=CABBTG12_4_3_3,Length=0.017000000,Units=km
new line.RBT_10196960 bus1=149148631.1.2.3.0,bus2=4010196960.1.2.3.0,Phases=3,Linecode=CABBTG12_4_3_3,Length=0.017000000,Units=km
new line.RBT_10196962 bus1=149148225.1.2.3.0,bus2=4010196962.1.2.3.0,Phases=3,Linecode=CABBTG12_4_3_3,Length=0.017000000,Units=km
new line.RBT_10196963 bus1=149148225.1.2.3.0,bus2=4010196963.1.2.3.0,Phases=3,Linecode=CABBTG12_4_3_3,Length=0.017000000,Units=km
new line.RBT_10196965 bus1=149148225.1.2.3.0,bus2=4010196965.1.2.3.0,Phases=3,Linecode=CABBTG12_4_3_3,Length=0.017000000,Units=km
new line.RBT_10196967 bus1=149148225.1.2.3.0,bus2=4010196967.1.2.3.0,Phases=3,Linecode=CABBTG12_4_3_3,Length=0.017000000,Units=km
new line.RBT_10196969 bus1=149148224.1.2.3.0,bus2=4010196969.1.2.3.0,Phases=3,Linecode=CABBTG12_4_3_3,Length=0.017000000,Units=km
new line.RBT_10196970 bus1=149148224.1.2.3.0,bus2=4010196970.1.2.3.0,Phases=3,Linecode=CABBTG12_4_3_3,Length=0.017000000,Units=km
new line.RBT_10196972 bus1=149148224.1.2.3.0,bus2=4010196972.1.2.3.0,Phases=3,Linecode=CABBTG12_4_3_3,Length=0.017000000,Units=km
new line.RBT_10196973 bus1=149148224.1.2.3.0,bus2=4010196973.1.2.3.0,Phases=3,Linecode=CABBTG12_4_3_3,Length=0.017000000,Units=km
new line.RBT_10196975 bus1=149148224.1.2.3.0,bus2=4010196975.1.2.3.0,Phases=3,Linecode=CABBTG12_4_3_3,Length=0.017000000,Units=km
new line.RBT_10196976 bus1=149148224.1.2.3.0,bus2=4010196976.1.2.3.0,Phases=3,Linecode=CABBTG12_4_3_3,Length=0.017000000,Units=km
new line.RBT_10196981 bus1=149147967.1.2.3.0,bus2=4010196981.1.2.3.0,Phases=3,Linecode=CABBTG12_4_3_3,Length=0.017000000,Units=km
new line.RBT_10196982 bus1=149147967.1.2.3.0,bus2=4010196982.1.2.3.0,Phases=3,Linecode=CABBTG12_4_3_3,Length=0.017000000,Units=km
new line.RBT_10196986 bus1=149147955.1.2.3.0,bus2=4010196986.1.2.3.0,Phases=3,Linecode=CABBTG12_4_3_3,Length=0.017000000,Units=km
new line.RBT_10196987 bus1=149147955.1.2.3.0,bus2=4010196987.1.2.3.0,Phases=3,Linecode=CABBTG12_4_3_3,Length=0.017000000,Units=km
new line.RBT_10196989 bus1=149147933.1.2.3.0,bus2=4010196989.1.2.3.0,Phases=3,Linecode=CABBTG12_4_3_3,Length=0.017000000,Units=km
new line.RBT_10196991 bus1=149147933.1.2.3.0,bus2=4010196991.1.2.3.0,Phases=3,Linecode=CABBTG12_4_3_3,Length=0.017000000,Units=km
new line.RBT_10196993 bus1=149147902.1.2.3.0,bus2=4010196993.1.2.3.0,Phases=3,Linecode=CABBTG12_4_3_3,Length=0.017000000,Units=km
new line.RBT_10196994 bus1=149147902.1.2.3.0,bus2=4010196994.1.2.3.0,Phases=3,Linecode=CABBTG12_4_3_3,Length=0.017000000,Units=km
new line.RBT_10196997 bus1=149147902.1.2.3.0,bus2=4010196997.1.2.3.0,Phases=3,Linecode=CABBTG12_4_3_3,Length=0.017000000,Units=km
new line.RBT_10196998 bus1=149147902.1.2.3.0,bus2=4010196998.1.2.3.0,Phases=3,Linecode=CABBTG12_4_3_3,Length=0.017000000,Units=km
new line.RBT_10196999 bus1=149147902.1.2.3.0,bus2=4010196999.1.2.3.0,Phases=3,Linecode=CABBTG12_4_3_3,Length=0.017000000,Units=km
new line.RBT_10197001 bus1=149147902.1.2.3.0,bus2=4010197001.1.2.3.0,Phases=3,Linecode=CABBTG12_4_3_3,Length=0.017000000,Units=km
new line.RBT_10197002 bus1=149148240.1.2.3.0,bus2=4010197002.1.2.3.0,Phases=3,Linecode=CABBTG12_4_3_3,Length=0.017000000,Units=km
new line.RBT_10197004 bus1=149148240.1.2.3.0,bus2=4010197004.1.2.3.0,Phases=3,Linecode=CABBTG12_4_3_3,Length=0.017000000,Units=km
new line.RBT_10197005 bus1=149148240.1.2.3.0,bus2=4010197005.1.2.3.0,Phases=3,Linecode=CABBTG12_4_3_3,Length=0.017000000,Units=km
new line.RBT_10197006 bus1=149148240.1.2.3.0,bus2=4010197006.1.2.3.0,Phases=3,Linecode=CABBTG12_4_3_3,Length=0.017000000,Units=km
new line.RBT_10197007 bus1=149148240.1.2.3.0,bus2=4010197007.1.2.3.0,Phases=3,Linecode=CABBTG12_4_3_3,Length=0.017000000,Units=km
new line.RBT_10197008 bus1=149148240.1.2.3.0,bus2=4010197008.1.2.3.0,Phases=3,Linecode=CABBTG12_4_3_3,Length=0.017000000,Units=km
new line.RBT_10197011 bus1=149148243.1.2.3.0,bus2=4010197011.1.2.3.0,Phases=3,Linecode=CABBTG12_4_3_3,Length=0.017000000,Units=km
new line.RBT_10197013 bus1=149148243.1.2.3.0,bus2=4010197013.1.2.3.0,Phases=3,Linecode=CABBTG12_4_3_3,Length=0.017000000,Units=km
new line.RBT_10197015 bus1=149148243.1.2.3.0,bus2=4010197015.1.2.3.0,Phases=3,Linecode=CABBTG12_4_3_3,Length=0.017000000,Units=km
new line.RBT_10197017 bus1=149148243.1.2.3.0,bus2=4010197017.1.2.3.0,Phases=3,Linecode=CABBTG12_4_3_3,Length=0.017000000,Units=km
new line.RBT_10197018 bus1=149148243.1.2.3.0,bus2=4010197018.1.2.3.0,Phases=3,Linecode=CABBTG12_4_3_3,Length=0.017000000,Units=km
new line.RBT_10197019 bus1=149148243.1.2.3.0,bus2=4010197019.1.2.3.0,Phases=3,Linecode=CABBTG12_4_3_3,Length=0.017000000,Units=km
new line.RBT_10197020 bus1=149148269.1.2.3.0,bus2=4010197020.1.2.3.0,Phases=3,Linecode=CABBTG12_4_3_3,Length=0.017000000,Units=km
new line.RBT_10197022 bus1=149148269.1.2.3.0,bus2=4010197022.1.2.3.0,Phases=3,Linecode=CABBTG12_4_3_3,Length=0.017000000,Units=km
new line.RBT_10197023 bus1=149148269.1.2.3.0,bus2=4010197023.1.2.3.0,Phases=3,Linecode=CABBTG12_4_3_3,Length=0.017000000,Units=km
new line.RBT_10197024 bus1=149148269.1.2.3.0,bus2=4010197024.1.2.3.0,Phases=3,Linecode=CABBTG12_4_3_3,Length=0.017000000,Units=km
new line.RBT_10197026 bus1=149148269.1.2.3.0,bus2=4010197026.1.2.3.0,Phases=3,Linecode=CABBTG12_4_3_3,Length=0.017000000,Units=km
new line.RBT_10197531 bus1=1135226.1.2.3.0,bus2=4010197531.1.2.3.0,Phases=3,Linecode=CABBTG10_4_3_3,Length=0.017000000,Units=km
new line.RBT_10225467 bus1=1133504.2.0,bus2=4010225467.2.0,Phases=1,Linecode=CABBTG02_4_1_1,Length=0.017000000,Units=km
new line.RBT_10225784 bus1=1167293.1.2.0,bus2=4010225784.1.2.0,Phases=2,Linecode=CABBTG05_4_2_2,Length=0.017000000,Units=km
new line.RBT_10227106 bus1=52625498.1.0,bus2=4010227106.1.0,Phases=1,Linecode=CABBTG02_4_1_1,Length=0.017000000,Units=km
new line.RBT_10227119 bus1=150201004.1.2.3.0,bus2=4010227119.1.2.3.0,Phases=3,Linecode=CABBTG08_4_3_3,Length=0.025000000,Units=km
new line.RBT_10227223 bus1=1051184.2.3.0,bus2=4010227223.2.3.0,Phases=2,Linecode=CABBTG05_4_2_2,Length=0.017000000,Units=km
new line.RBT_10227287 bus1=1054838.1.0,bus2=4010227287.1.0,Phases=1,Linecode=CABBTG02_4_1_1,Length=0.017000000,Units=km
new line.RBT_10228365 bus1=1053151.2.0,bus2=4010228365.2.0,Phases=1,Linecode=CABBTG02_4_1_1,Length=0.017000000,Units=km
new line.RBT_10228961 bus1=1051555.1.2.0,bus2=4010228961.1.2.0,Phases=2,Linecode=CABBTG05_4_2_2,Length=0.017000000,Units=km
new line.RBT_10228976 bus1=1048146.1.2.0,bus2=4010228976.1.2.0,Phases=2,Linecode=CABBTG05_4_2_2,Length=0.017000000,Units=km
new line.RBT_10228986 bus1=1152985.1.2.0,bus2=4010228986.1.2.0,Phases=2,Linecode=CABBTG05_4_2_2,Length=0.017000000,Units=km
new line.RBT_10250443 bus1=1057134.1.0,bus2=4010250443.1.0,Phases=1,Linecode=CABBTG02_4_1_1,Length=0.017000000,Units=km
new line.RBT_10250565 bus1=1138712.1.2.3.0,bus2=4010250565.1.2.3.0,Phases=3,Linecode=CABBTG06_4_3_3,Length=0.017000000,Units=km
new line.RBT_10074440 bus1=4263533.1.2.0,bus2=4010074440.1.2.0,Phases=2,Linecode=CABBTG05_4_2_2,Length=0.010000000,Units=km
new line.RBT_10074542 bus1=1056770.1.0,bus2=4010074542.1.0,Phases=1,Linecode=CABBTG02_4_1_1,Length=0.017000000,Units=km
new line.RBT_10074543 bus1=1055027.1.0,bus2=4010074543.1.0,Phases=1,Linecode=CABBTG02_4_1_1,Length=0.017000000,Units=km
new line.RBT_10074706 bus1=1137564.1.0,bus2=4010074706.1.0,Phases=1,Linecode=CABBTG01_4_1_1,Length=0.017000000,Units=km
new line.RBT_10074718 bus1=1055244.1.0,bus2=4010074718.1.0,Phases=1,Linecode=CABBTG02_4_1_1,Length=0.017000000,Units=km
new line.RBT_10074722 bus1=1058352.1.0,bus2=4010074722.1.0,Phases=1,Linecode=CABBTG02_4_1_1,Length=0.017000000,Units=km
new line.RBT_10074912 bus1=1054831.1.0,bus2=4010074912.1.0,Phases=1,Linecode=CABBTG02_4_1_1,Length=0.017000000,Units=km
new line.RBT_10075030 bus1=1053158.2.0,bus2=4010075030.2.0,Phases=1,Linecode=CABBTG02_4_1_1,Length=0.017000000,Units=km
new line.RBT_10075032 bus1=1053158.1.0,bus2=4010075032.1.0,Phases=1,Linecode=CABBTG02_4_1_1,Length=0.017000000,Units=km
new line.RBT_10075034 bus1=1053158.2.0,bus2=4010075034.2.0,Phases=1,Linecode=CABBTG02_4_1_1,Length=0.017000000,Units=km
new line.RBT_10075036 bus1=1053158.1.0,bus2=4010075036.1.0,Phases=1,Linecode=CABBTG01_4_1_1,Length=0.017000000,Units=km
new line.RBT_10075037 bus1=1053158.1.0,bus2=4010075037.1.0,Phases=1,Linecode=CABBTG01_4_1_1,Length=0.017000000,Units=km
new line.RBT_10075041 bus1=1053158.1.0,bus2=4010075041.1.0,Phases=1,Linecode=CABBTG02_4_1_1,Length=0.017000000,Units=km
new line.RBT_10076712 bus1=1058331.1.0,bus2=4010076712.1.0,Phases=1,Linecode=CABBTG02_4_1_1,Length=0.017000000,Units=km
new line.RBT_10076720 bus1=1049112.1.2.0,bus2=4010076720.1.2.0,Phases=2,Linecode=CABBTG05_4_2_2,Length=0.017000000,Units=km
new line.RBT_10077097 bus1=1048846.2.0,bus2=4010077097.2.0,Phases=1,Linecode=CABBTG02_4_1_1,Length=0.017000000,Units=km
new line.RBT_10077334 bus1=1050113.1.2.0,bus2=4010077334.1.2.0,Phases=2,Linecode=CABBTG05_4_2_2,Length=0.017000000,Units=km
new line.RBT_10077345 bus1=4237465.2.0,bus2=4010077345.2.0,Phases=1,Linecode=CABBTG02_4_1_1,Length=0.017000000,Units=km
new line.RBT_10115572 bus1=4263533.1.2.0,bus2=4010115572.1.2.0,Phases=2,Linecode=CABBTG05_4_2_2,Length=0.017000000,Units=km
new line.RBT_10117623 bus1=1135191.1.2.0,bus2=4010117623.1.2.0,Phases=2,Linecode=CABBTG05_4_2_2,Length=0.017000000,Units=km
new line.RBT_10118056 bus1=4604307.1.2.0,bus2=4010118056.1.2.0,Phases=2,Linecode=CABBTG05_4_2_2,Length=0.017000000,Units=km
new line.RBT_10118092 bus1=1026334.1.2.0,bus2=4010118092.1.2.0,Phases=2,Linecode=CABBTG05_4_2_2,Length=0.017000000,Units=km
new line.RBT_10118182 bus1=1144158.1.0,bus2=4010118182.1.0,Phases=1,Linecode=CABBTG01_4_1_1,Length=0.012000000,Units=km
new line.RBT_10118325 bus1=1015113.1.0,bus2=4010118325.1.0,Phases=1,Linecode=CABBTG02_4_1_1,Length=0.017000000,Units=km
new line.RBT_10187582 bus1=149148341.1.2.3.0,bus2=4010187582.1.2.3.0,Phases=3,Linecode=CABBTG12_4_3_3,Length=0.017000000,Units=km
new line.RBT_10187602 bus1=149148631.1.2.3.0,bus2=4010187602.1.2.3.0,Phases=3,Linecode=CABBTG12_4_3_3,Length=0.017000000,Units=km
new line.RBT_10187605 bus1=149148499.1.2.3.0,bus2=4010187605.1.2.3.0,Phases=3,Linecode=CABBTG12_4_3_3,Length=0.017000000,Units=km
new line.RBT_10187619 bus1=149148341.1.2.3.0,bus2=4010187619.1.2.3.0,Phases=3,Linecode=CABBTG12_4_3_3,Length=0.017000000,Units=km
new line.RBT_10187622 bus1=149148341.1.2.3.0,bus2=4010187622.1.2.3.0,Phases=3,Linecode=CABBTG12_4_3_3,Length=0.017000000,Units=km
new line.RBT_10187625 bus1=149148384.1.2.3.0,bus2=4010187625.1.2.3.0,Phases=3,Linecode=CABBTG12_4_3_3,Length=0.017000000,Units=km
new line.RBT_10187743 bus1=3555441.1.0,bus2=4010187743.1.0,Phases=1,Linecode=CABBTG02_4_1_1,Length=0.017000000,Units=km
new line.RBT_10187770 bus1=1134064.1.2.3.0,bus2=4010187770.1.2.3.0,Phases=3,Linecode=CABBTG06_4_3_3,Length=0.017000000,Units=km
new line.RBT_10187781 bus1=149148741.1.2.3.0,bus2=4010187781.1.2.3.0,Phases=3,Linecode=CABBTG12_4_3_3,Length=0.017000000,Units=km
new line.RBT_10187787 bus1=149148650.1.2.3.0,bus2=4010187787.1.2.3.0,Phases=3,Linecode=CABBTG12_4_3_3,Length=0.017000000,Units=km
new line.RBT_10187789 bus1=149148422.1.2.3.0,bus2=4010187789.1.2.3.0,Phases=3,Linecode=CABBTG12_4_3_3,Length=0.017000000,Units=km
new line.RBT_10187791 bus1=149148427.1.2.3.0,bus2=4010187791.1.2.3.0,Phases=3,Linecode=CABBTG12_4_3_3,Length=0.017000000,Units=km
new line.RBT_10187793 bus1=149148741.1.2.3.0,bus2=4010187793.1.2.3.0,Phases=3,Linecode=CABBTG12_4_3_3,Length=0.017000000,Units=km
new line.RBT_10187795 bus1=149148741.1.2.3.0,bus2=4010187795.1.2.3.0,Phases=3,Linecode=CABBTG12_4_3_3,Length=0.017000000,Units=km
new line.RBT_10187813 bus1=1047852.1.0,bus2=4010187813.1.0,Phases=1,Linecode=CABBTG02_4_1_1,Length=0.017000000,Units=km
new line.RBT_10187927 bus1=3495976.1.0,bus2=4010187927.1.0,Phases=1,Linecode=CABBTG02_4_1_1,Length=0.017000000,Units=km
new line.RBT_10187938 bus1=149148341.1.2.3.0,bus2=4010187938.1.2.3.0,Phases=3,Linecode=CABBTG12_4_3_3,Length=0.017000000,Units=km
new line.RBT_10187941 bus1=149148341.1.2.3.0,bus2=4010187941.1.2.3.0,Phases=3,Linecode=CABBTG12_4_3_3,Length=0.017000000,Units=km
new line.RBT_10187945 bus1=149148422.1.2.3.0,bus2=4010187945.1.2.3.0,Phases=3,Linecode=CABBTG12_4_3_3,Length=0.017000000,Units=km
new line.RBT_10187948 bus1=149148384.1.2.3.0,bus2=4010187948.1.2.3.0,Phases=3,Linecode=CABBTG12_4_3_3,Length=0.017000000,Units=km
new line.RBT_10187949 bus1=149148341.1.2.3.0,bus2=4010187949.1.2.3.0,Phases=3,Linecode=CABBTG12_4_3_3,Length=0.017000000,Units=km
new line.RBT_10187953 bus1=149148499.1.2.3.0,bus2=4010187953.1.2.3.0,Phases=3,Linecode=CABBTG12_4_3_3,Length=0.017000000,Units=km
new line.RBT_10188047 bus1=3295118.1.0,bus2=4010188047.1.0,Phases=1,Linecode=CABBTG02_4_1_1,Length=0.017000000,Units=km
new line.RBT_10207142 bus1=1048370.1.0,bus2=4010207142.1.0,Phases=1,Linecode=CABBTG02_4_1_1,Length=0.017000000,Units=km
new line.RBT_10240854 bus1=1134974.3.0,bus2=4010240854.3.0,Phases=1,Linecode=CABBTG02_4_1_1,Length=0.017000000,Units=km
new line.RBT_10240857 bus1=1135954.3.0,bus2=4010240857.3.0,Phases=1,Linecode=CABBTG02_4_1_1,Length=0.017000000,Units=km
new line.RBT_10242930 bus1=4578372.1.0,bus2=4010242930.1.0,Phases=1,Linecode=CABBTG02_4_1_1,Length=0.017000000,Units=km
new line.RBT_10242935 bus1=4098732.1.0,bus2=4010242935.1.0,Phases=1,Linecode=CABBTG02_4_1_1,Length=0.017000000,Units=km
new line.RBT_10242949 bus1=1152201.1.2.0,bus2=4010242949.1.2.0,Phases=2,Linecode=CABBTG05_4_2_2,Length=0.017000000,Units=km
new line.RBT_10242988 bus1=1134694.1.2.0,bus2=4010242988.1.2.0,Phases=2,Linecode=CABBTG05_4_2_2,Length=0.017000000,Units=km
new line.RBT_10271547 bus1=4657668.2.0,bus2=4010271547.2.0,Phases=1,Linecode=CABBTG02_4_1_1,Length=0.017000000,Units=km
new line.RBT_10302433 bus1=1051016.1.2.0,bus2=4010302433.1.2.0,Phases=2,Linecode=CABBTG05_4_2_2,Length=0.017000000,Units=km
new line.RBT_10302629 bus1=4237339.1.2.0,bus2=4010302629.1.2.0,Phases=2,Linecode=CABBTG05_4_2_2,Length=0.017000000,Units=km
new line.RBT_10086796 bus1=1139902.1.2.0,bus2=4010086796.1.2.0,Phases=2,Linecode=CABBTG05_4_2_2,Length=0.017000000,Units=km
new line.RBT_10086800 bus1=1137445.1.2.0,bus2=4010086800.1.2.0,Phases=2,Linecode=CABBTG05_4_2_2,Length=0.017000000,Units=km
new line.RBT_10086804 bus1=1144109.1.2.0,bus2=4010086804.1.2.0,Phases=2,Linecode=CABBTG05_4_2_2,Length=0.017000000,Units=km
new line.RBT_10086808 bus1=1139279.1.2.0,bus2=4010086808.1.2.0,Phases=2,Linecode=CABBTG05_4_2_2,Length=0.017000000,Units=km
new line.RBT_10086820 bus1=4657325.1.2.0,bus2=4010086820.1.2.0,Phases=2,Linecode=CABBTG05_4_2_2,Length=0.017000000,Units=km
new line.RBT_10086824 bus1=4657332.1.2.0,bus2=4010086824.1.2.0,Phases=2,Linecode=CABBTG05_4_2_2,Length=0.017000000,Units=km
new line.RBT_10086826 bus1=4657311.1.2.0,bus2=4010086826.1.2.0,Phases=2,Linecode=CABBTG05_4_2_2,Length=0.017000000,Units=km
new line.RBT_10086831 bus1=4657444.1.2.0,bus2=4010086831.1.2.0,Phases=2,Linecode=CABBTG05_4_2_2,Length=0.017000000,Units=km
new line.RBT_10086851 bus1=4657444.1.2.0,bus2=4010086851.1.2.0,Phases=2,Linecode=CABBTG05_4_2_2,Length=0.017000000,Units=km
new line.RBT_10086858 bus1=4657444.1.2.0,bus2=4010086858.1.2.0,Phases=2,Linecode=CABBTG05_4_2_2,Length=0.017000000,Units=km
new line.RBT_10086862 bus1=4657297.1.2.0,bus2=4010086862.1.2.0,Phases=2,Linecode=CABBTG05_4_2_2,Length=0.017000000,Units=km
new line.RBT_10086868 bus1=4657262.1.2.0,bus2=4010086868.1.2.0,Phases=2,Linecode=CABBTG05_4_2_2,Length=0.017000000,Units=km
new line.RBT_10086913 bus1=4657262.1.2.0,bus2=4010086913.1.2.0,Phases=2,Linecode=CABBTG05_4_2_2,Length=0.017000000,Units=km
new line.RBT_10086922 bus1=4657269.1.2.0,bus2=4010086922.1.2.0,Phases=2,Linecode=CABBTG05_4_2_2,Length=0.017000000,Units=km
new line.RBT_10086935 bus1=4657269.1.2.0,bus2=4010086935.1.2.0,Phases=2,Linecode=CABBTG05_4_2_2,Length=0.017000000,Units=km
new line.RBT_10086943 bus1=4657269.1.2.0,bus2=4010086943.1.2.0,Phases=2,Linecode=CABBTG05_4_2_2,Length=0.017000000,Units=km
new line.RBT_10086948 bus1=4657283.1.2.0,bus2=4010086948.1.2.0,Phases=2,Linecode=CABBTG05_4_2_2,Length=0.017000000,Units=km
new line.RBT_10086952 bus1=4657661.1.2.0,bus2=4010086952.1.2.0,Phases=2,Linecode=CABBTG05_4_2_2,Length=0.017000000,Units=km
new line.RBT_10086954 bus1=1145817.1.2.0,bus2=4010086954.1.2.0,Phases=2,Linecode=CABBTG05_4_2_2,Length=0.017000000,Units=km
new line.RBT_10104623 bus1=1132335.1.0,bus2=4010104623.1.0,Phases=1,Linecode=CABBTG02_4_1_1,Length=0.017000000,Units=km
new line.RBT_10104877 bus1=4237479.2.0,bus2=4010104877.2.0,Phases=1,Linecode=CABBTG01_4_1_1,Length=0.016000000,Units=km
new line.RBT_10104931 bus1=4244010.1.2.0,bus2=4010104931.1.2.0,Phases=2,Linecode=CABBTG05_4_2_2,Length=0.018000000,Units=km
new line.RBT_10105156 bus1=1148351.1.2.0,bus2=4010105156.1.2.0,Phases=2,Linecode=CABBTG05_4_2_2,Length=0.017000000,Units=km
new line.RBT_10105159 bus1=4263596.1.2.0,bus2=4010105159.1.2.0,Phases=2,Linecode=CABBTG05_4_2_2,Length=0.017000000,Units=km
new line.RBT_10105197 bus1=1049084.1.2.0,bus2=4010105197.1.2.0,Phases=2,Linecode=CABBTG05_4_2_2,Length=0.017000000,Units=km
new line.RBT_10106728 bus1=110854655.1.2.0,bus2=4010106728.1.2.0,Phases=2,Linecode=CABBTG05_4_2_2,Length=0.017000000,Units=km
new line.RBT_10132039 bus1=1150647.1.0,bus2=4010132039.1.0,Phases=1,Linecode=CABBTG02_4_1_1,Length=0.017000000,Units=km
new line.RBT_10133601 bus1=1150654.1.0,bus2=4010133601.1.0,Phases=1,Linecode=CABBTG02_4_1_1,Length=0.017000000,Units=km
new line.RBT_10133886 bus1=1133504.1.2.3.0,bus2=4010133886.1.2.3.0,Phases=3,Linecode=CABBTG06_4_3_3,Length=0.017000000,Units=km
new line.RBT_10133991 bus1=107447958.1.0,bus2=4010133991.1.0,Phases=1,Linecode=CABBTG02_4_1_1,Length=0.017000000,Units=km
new line.RBT_10134274 bus1=1057141.2.0,bus2=4010134274.2.0,Phases=1,Linecode=CABBTG02_4_1_1,Length=0.017000000,Units=km
new line.RBT_10165530 bus1=1056000.1.2.0,bus2=4010165530.1.2.0,Phases=2,Linecode=CABBTG05_4_2_2,Length=0.014000000,Units=km
...
